22
time=1602
 Na   -15.760400   42.000800    1.097240
  O -13.736500   43.378900    0.532358
  H -13.014800   42.774600    0.869892
  H -13.479200   43.736300   -0.365462
  O -16.295700   41.955900   -1.411330
  H -16.342600   42.829000   -1.896480
  H -17.032000   41.358300   -1.728660
  O  -14.769100   41.211000    3.336970
  C  -14.694200   41.217100    4.697650
  H  -14.643800   40.366700    2.931280
  O -18.568000   41.901300    1.894920
  H -18.310000   42.794400    1.526620
  H -19.559000   41.788900    1.832490
  O -14.186000   40.208200   -0.643203
  H -14.795000   40.700300   -1.265610
  H -13.400000   39.858900   -1.152790
  O -16.609800   44.769000    1.780760
  H -17.524400   45.050000    2.071510
  H -15.923700   45.274000    2.304320
  O -14.464800   39.120400    1.784720
  H -14.383300   39.350400    0.814946
  H -14.361600   38.132800    1.902890

