22
time=3156
 K   -11.688700   38.475900    0.588543
  O  -10.496400   38.742600    3.419120
  C  -10.498900   38.802800    4.748210
  H  -11.030900   38.097800    2.981560
  O -10.077800   37.439100   -1.473410
  H  -9.145200   37.082000   -1.524900
  H -10.077800   38.408100   -1.720500
  O -13.619400   37.267100   -0.793154
  H -13.125200   36.706800   -1.457810
  H -14.586700   37.013600   -0.797256
  O -10.246300   36.414300    1.744380
  H -10.847600   35.650800    1.508800
  H  -9.532940   36.096300    2.368860
  O -10.695000   40.002900   -1.862130
  H -10.169500   40.766800   -1.487770
  H -11.593200   40.329000   -2.157030
  O -14.151000   38.636400    1.896720
  H -14.831900   37.904600    1.867450
  H -14.541200   39.436700    2.352100
  O -12.413900   41.302600    0.428069
  H -11.703100   41.707900    1.002980
  H -12.612900   41.914800   -0.337150

